<?xml version="1.0" encoding="UTF-8"?>

<!-- generated on 2023-04-20 19:51:00.153015 by randomTrips.py v1_16_0+0000-94ec4c6cd72
<configuration>
    <allow-fringe.min-length value="1000.0"/>
    <begin value="0"/>
    <end value="10000"/>
    <fringe-factor value="5"/>
    <fringe-start-attributes value="departSpeed=&quot;max&quot;"/>
    <insertion-density value="200.0"/>
    <lanes value="True"/>
    <min-distance.fringe value="10.0"/>
    <min-distance value="300.0"/>
    <net-file value="osm.net.xml.gz"/>
    <remove-loops value="True"/>
    <route-file value="osm.passenger.rou.xml"/>
    <trip-attributes value="departLane=&quot;best&quot;"/>
    <output-trip-file value="osm.passenger.trips.xml"/>
    <prefix value="veh"/>
    <validate value="True"/>
    <vehicle-class value="passenger"/>
</configuration>
-->

<!-- generated on 2023-04-20 19:50:59 by Eclipse SUMO duarouter Version 1.16.0
<configuration xmlns:xsi="http://www.w3.org/2001/XMLSchema-instance" xsi:noNamespaceSchemaLocation="http://sumo.dlr.de/xsd/duarouterConfiguration.xsd">

    <input>
        <net-file value="osm.net.xml.gz"/>
        <route-files value="osm.passenger.trips.xml"/>
    </input>

    <output>
        <output-file value="osm.passenger.trips.xml.tmp"/>
        <alternatives-output value="NUL"/>
        <write-trips value="true"/>
    </output>

    <processing>
        <remove-loops value="true"/>
    </processing>

    <time>
        <begin value="0"/>
        <end value="10000"/>
    </time>

    <report>
        <no-warnings value="true"/>
        <ignore-errors value="true"/>
        <no-step-log value="true"/>
    </report>

</configuration>
-->

<routes xmlns:xsi="http://www.w3.org/2001/XMLSchema-instance" xsi:noNamespaceSchemaLocation="http://sumo.dlr.de/xsd/routes_file.xsd">
    <vType id="veh_passenger" vClass="passenger"/>
    <trip id="veh0" type="veh_passenger" depart="0.00" departLane="best" departSpeed="max" from="302403506" to="-1095450993"/>
    <trip id="veh1" type="veh_passenger" depart="2.16" departLane="best" departSpeed="max" from="667547900" to="-117337704#1"/>
    <trip id="veh2" type="veh_passenger" depart="4.33" departLane="best" from="42278771#2" to="-918310920"/>
    <trip id="veh3" type="veh_passenger" depart="6.49" departLane="best" departSpeed="max" from="-208022642" to="410498327#3"/>
    <trip id="veh4" type="veh_passenger" depart="8.65" departLane="best" from="42278771#2" to="-996318101"/>
    <trip id="veh5" type="veh_passenger" depart="10.81" departLane="best" from="475301521#0" to="-1095450993"/>
    <trip id="veh6" type="veh_passenger" depart="12.98" departLane="best" from="475301521#0" to="290792379"/>
    <trip id="veh7" type="veh_passenger" depart="15.14" departLane="best" departSpeed="max" from="-290792379" to="-117337704#1"/>
    <trip id="veh8" type="veh_passenger" depart="17.30" departLane="best" from="660808728#2" to="208022635"/>
    <trip id="veh9" type="veh_passenger" depart="19.47" departLane="best" from="475301521#0" to="290792379"/>
    <trip id="veh10" type="veh_passenger" depart="21.63" departLane="best" from="219521873#2" to="910487642"/>
    <trip id="veh11" type="veh_passenger" depart="23.79" departLane="best" departSpeed="max" from="-910487642" to="-996318101"/>
    <trip id="veh12" type="veh_passenger" depart="25.95" departLane="best" from="660808728#0" to="208022642"/>
    <trip id="veh13" type="veh_passenger" depart="28.12" departLane="best" departSpeed="max" from="667547900" to="-996318101"/>
    <trip id="veh14" type="veh_passenger" depart="30.28" departLane="best" from="-219521874#2" to="-42278771#1"/>
    <trip id="veh15" type="veh_passenger" depart="32.44" departLane="best" departSpeed="max" from="302403506" to="-475301521#1"/>
    <trip id="veh16" type="veh_passenger" depart="34.60" departLane="best" departSpeed="max" from="-910487642" to="410498327#0"/>
    <trip id="veh17" type="veh_passenger" depart="36.77" departLane="best" departSpeed="max" from="-464981452" to="-660808728#1"/>
    <trip id="veh18" type="veh_passenger" depart="38.93" departLane="best" from="-410498327#2" to="208022642"/>
    <trip id="veh19" type="veh_passenger" depart="41.09" departLane="best" departSpeed="max" from="-42278770" to="290792379"/>
    <trip id="veh20" type="veh_passenger" depart="43.26" departLane="best" departSpeed="max" from="996318101" to="208022642"/>
    <trip id="veh21" type="veh_passenger" depart="45.42" departLane="best" departSpeed="max" from="240552107" to="219521873#2"/>
    <trip id="veh22" type="veh_passenger" depart="47.58" departLane="best" from="660808728#1" to="42278770"/>
    <trip id="veh23" type="veh_passenger" depart="49.74" departLane="best" from="475301521#1" to="-42278771#3"/>
    <trip id="veh24" type="veh_passenger" depart="51.91" departLane="best" departSpeed="max" from="-42278770" to="-660808728#2"/>
    <trip id="veh25" type="veh_passenger" depart="54.07" departLane="best" departSpeed="max" from="667547900" to="-42278777"/>
    <trip id="veh26" type="veh_passenger" depart="56.23" departLane="best" departSpeed="max" from="918310920" to="-667547900"/>
    <trip id="veh27" type="veh_passenger" depart="58.40" departLane="best" departSpeed="max" from="240552107" to="-42278771#1"/>
    <trip id="veh28" type="veh_passenger" depart="60.56" departLane="best" departSpeed="max" from="240552107" to="-475301520#2"/>
    <trip id="veh29" type="veh_passenger" depart="62.72" departLane="best" departSpeed="max" from="-910487642" to="-42278771#1"/>
    <trip id="veh30" type="veh_passenger" depart="64.88" departLane="best" departSpeed="max" from="996318101" to="-918310920"/>
    <trip id="veh31" type="veh_passenger" depart="67.05" departLane="best" from="-219521873#1" to="-528946603"/>
    <trip id="veh32" type="veh_passenger" depart="69.21" departLane="best" departSpeed="max" from="996318101" to="-918310920"/>
    <trip id="veh33" type="veh_passenger" depart="71.37" departLane="best" departSpeed="max" from="996318101" to="464981451"/>
    <trip id="veh34" type="veh_passenger" depart="73.54" departLane="best" departSpeed="max" from="42278771#0" to="-918310920"/>
    <trip id="veh35" type="veh_passenger" depart="75.70" departLane="best" departSpeed="max" from="-464981452" to="208022642"/>
    <trip id="veh36" type="veh_passenger" depart="77.86" departLane="best" departSpeed="max" from="-290792379" to="-660808728#1"/>
    <trip id="veh37" type="veh_passenger" depart="80.02" departLane="best" departSpeed="max" from="667547900" to="-42278771#1"/>
    <trip id="veh38" type="veh_passenger" depart="82.19" departLane="best" departSpeed="max" from="918310920" to="464981451"/>
    <trip id="veh39" type="veh_passenger" depart="84.35" departLane="best" from="-475301520#2" to="208022642"/>
    <trip id="veh40" type="veh_passenger" depart="86.51" departLane="best" departSpeed="max" from="42278777" to="-918310920"/>
    <trip id="veh41" type="veh_passenger" depart="88.68" departLane="best" departSpeed="max" from="42278777" to="-918310920"/>
    <trip id="veh42" type="veh_passenger" depart="90.84" departLane="best" departSpeed="max" from="-208022642" to="-42278777"/>
    <trip id="veh43" type="veh_passenger" depart="93.00" departLane="best" departSpeed="max" from="-208022642" to="-660808728#0"/>
    <trip id="veh44" type="veh_passenger" depart="95.16" departLane="best" from="-475301521#0" to="-117337704#1"/>
    <trip id="veh45" type="veh_passenger" depart="97.33" departLane="best" departSpeed="max" from="667547900" to="-660808728#2"/>
    <trip id="veh46" type="veh_passenger" depart="99.49" departLane="best" from="-219521874#2" to="-667547900"/>
    <trip id="veh47" type="veh_passenger" depart="101.65" departLane="best" from="-219521873#3" to="410498327#3"/>
    <trip id="veh48" type="veh_passenger" depart="103.81" departLane="best" departSpeed="max" from="42278777" to="208022635"/>
    <trip id="veh49" type="veh_passenger" depart="105.98" departLane="best" departSpeed="max" from="1095450993" to="410498327#0"/>
    <trip id="veh50" type="veh_passenger" depart="108.14" departLane="best" departSpeed="max" from="240552107" to="290792379"/>
    <trip id="veh51" type="veh_passenger" depart="110.30" departLane="best" departSpeed="max" from="-42278770" to="-42278777"/>
    <trip id="veh52" type="veh_passenger" depart="112.47" departLane="best" departSpeed="max" from="996318101" to="208022642"/>
    <trip id="veh53" type="veh_passenger" depart="114.63" departLane="best" departSpeed="max" from="1095450993" to="-918310920"/>
    <trip id="veh54" type="veh_passenger" depart="116.79" departLane="best" departSpeed="max" from="-290792379" to="-42278771#1"/>
    <trip id="veh55" type="veh_passenger" depart="118.95" departLane="best" departSpeed="max" from="667547900" to="-117337704#1"/>
    <trip id="veh56" type="veh_passenger" depart="121.12" departLane="best" departSpeed="max" from="-42278770" to="-219521874#2"/>
    <trip id="veh57" type="veh_passenger" depart="123.28" departLane="best" departSpeed="max" from="918310920" to="-996318101"/>
    <trip id="veh58" type="veh_passenger" depart="125.44" departLane="best" departSpeed="max" from="117337704#0" to="42278770"/>
    <trip id="veh59" type="veh_passenger" depart="127.61" departLane="best" from="475301521#0" to="-302403506"/>
    <trip id="veh60" type="veh_passenger" depart="129.77" departLane="best" departSpeed="max" from="-290792379" to="-660808728#0"/>
    <trip id="veh61" type="veh_passenger" depart="131.93" departLane="best" departSpeed="max" from="996318101" to="-219521872#3"/>
    <trip id="veh62" type="veh_passenger" depart="134.09" departLane="best" departSpeed="max" from="1095450993" to="-42278777"/>
    <trip id="veh63" type="veh_passenger" depart="136.26" departLane="best" departSpeed="max" from="667547900" to="-42278771#1"/>
    <trip id="veh64" type="veh_passenger" depart="138.42" departLane="best" departSpeed="max" from="-42278770" to="-660808728#2"/>
    <trip id="veh65" type="veh_passenger" depart="140.58" departLane="best" departSpeed="max" from="-464981452" to="-660808728#0"/>
    <trip id="veh66" type="veh_passenger" depart="142.75" departLane="best" departSpeed="max" from="1095450993" to="464981451"/>
    <trip id="veh67" type="veh_passenger" depart="144.91" departLane="best" departSpeed="max" from="240552107" to="-117337704#1"/>
    <trip id="veh68" type="veh_passenger" depart="147.07" departLane="best" departSpeed="max" from="117337704#0" to="410498327#0"/>
    <trip id="veh69" type="veh_passenger" depart="149.23" departLane="best" departSpeed="max" from="996318101" to="910487642"/>
    <trip id="veh70" type="veh_passenger" depart="151.40" departLane="best" departSpeed="max" from="240552107" to="290792379"/>
    <trip id="veh71" type="veh_passenger" depart="153.56" departLane="best" from="-314853469" to="-42278777"/>
    <trip id="veh72" type="veh_passenger" depart="155.72" departLane="best" from="-219521872#3" to="-996318101"/>
    <trip id="veh73" type="veh_passenger" depart="157.89" departLane="best" from="208022635" to="464981451"/>
    <trip id="veh74" type="veh_passenger" depart="160.05" departLane="best" from="-410498327#2" to="910487642"/>
    <trip id="veh75" type="veh_passenger" depart="162.21" departLane="best" from="29331867" to="-219521873#1"/>
    <trip id="veh76" type="veh_passenger" depart="164.37" departLane="best" departSpeed="max" from="667547900" to="-42278771#1"/>
    <trip id="veh77" type="veh_passenger" depart="166.54" departLane="best" from="29331867" to="208022642"/>
    <trip id="veh78" type="veh_passenger" depart="168.70" departLane="best" departSpeed="max" from="1095450993" to="-996318101"/>
    <trip id="veh79" type="veh_passenger" depart="170.86" departLane="best" from="219521873#0" to="-660808728#1"/>
    <trip id="veh80" type="veh_passenger" depart="173.02" departLane="best" departSpeed="max" from="-42278770" to="290792379"/>
    <trip id="veh81" type="veh_passenger" depart="175.19" departLane="best" from="-42278775" to="-528946603"/>
    <trip id="veh82" type="veh_passenger" depart="177.35" departLane="best" departSpeed="max" from="42278771#0" to="-42278777"/>
    <trip id="veh83" type="veh_passenger" depart="179.51" departLane="best" from="475301521#1" to="410498327#0"/>
    <trip id="veh84" type="veh_passenger" depart="181.68" departLane="best" departSpeed="max" from="996318101" to="910487642"/>
    <trip id="veh85" type="veh_passenger" depart="183.84" departLane="best" departSpeed="max" from="-464981452" to="-660808728#1"/>
    <trip id="veh86" type="veh_passenger" depart="186.00" departLane="best" departSpeed="max" from="667547900" to="464981451"/>
    <trip id="veh87" type="veh_passenger" depart="188.16" departLane="best" departSpeed="max" from="-910487642" to="-302403506"/>
    <trip id="veh88" type="veh_passenger" depart="190.33" departLane="best" from="660808728#1" to="290792379"/>
    <trip id="veh89" type="veh_passenger" depart="192.49" departLane="best" departSpeed="max" from="302403506" to="910487642"/>
    <trip id="veh90" type="veh_passenger" depart="194.65" departLane="best" from="-410498327#2" to="-1095450993"/>
    <trip id="veh91" type="veh_passenger" depart="196.82" departLane="best" from="475301521#1" to="-42278777"/>
    <trip id="veh92" type="veh_passenger" depart="198.98" departLane="best" from="-314853469" to="-660808728#1"/>
    <trip id="veh93" type="veh_passenger" depart="201.14" departLane="best" departSpeed="max" from="-290792379" to="-996318101"/>
    <trip id="veh94" type="veh_passenger" depart="203.30" departLane="best" departSpeed="max" from="302403506" to="-42278771#1"/>
    <trip id="veh95" type="veh_passenger" depart="205.47" departLane="best" departSpeed="max" from="117337704#0" to="475301521#0"/>
    <trip id="veh96" type="veh_passenger" depart="207.63" departLane="best" from="-660808728#2" to="-117337704#1"/>
    <trip id="veh97" type="veh_passenger" depart="209.79" departLane="best" departSpeed="max" from="-208022642" to="42278770"/>
    <trip id="veh98" type="veh_passenger" depart="211.96" departLane="best" departSpeed="max" from="302403506" to="-42278771#1"/>
    <trip id="veh99" type="veh_passenger" depart="214.12" departLane="best" from="42278775" to="-996318101"/>
    <trip id="veh100" type="veh_passenger" depart="216.28" departLane="best" from="-219521873#3" to="464981451"/>
    <trip id="veh101" type="veh_passenger" depart="218.44" departLane="best" from="-314853469" to="-219521873#3"/>
    <trip id="veh102" type="veh_passenger" depart="220.61" departLane="best" from="475301520#0" to="464981451"/>
    <trip id="veh103" type="veh_passenger" depart="222.77" departLane="best" departSpeed="max" from="667547900" to="410498327#0"/>
    <trip id="veh104" type="veh_passenger" depart="224.93" departLane="best" departSpeed="max" from="42278777" to="464981451"/>
    <trip id="veh105" type="veh_passenger" depart="227.09" departLane="best" departSpeed="max" from="1095450993" to="208022642"/>
    <trip id="veh106" type="veh_passenger" depart="229.26" departLane="best" from="-314853469" to="-660808728#0"/>
    <trip id="veh107" type="veh_passenger" depart="231.42" departLane="best" departSpeed="max" from="667547900" to="910487642"/>
    <trip id="veh108" type="veh_passenger" depart="233.58" departLane="best" from="475301521#0" to="464981451"/>
    <trip id="veh109" type="veh_passenger" depart="235.75" departLane="best" departSpeed="max" from="-208022642" to="29331867"/>
    <trip id="veh110" type="veh_passenger" depart="237.91" departLane="best" from="475301520#0" to="464981451"/>
    <trip id="veh111" type="veh_passenger" depart="240.07" departLane="best" from="475301521#0" to="-42278771#3"/>
    <trip id="veh112" type="veh_passenger" depart="242.23" departLane="best" departSpeed="max" from="42278777" to="-219521873#1"/>
    <trip id="veh113" type="veh_passenger" depart="244.40" departLane="best" departSpeed="max" from="667547900" to="464981451"/>
    <trip id="veh114" type="veh_passenger" depart="246.56" departLane="best" from="-475301520#2" to="-42278771#1"/>
    <trip id="veh115" type="veh_passenger" depart="248.72" departLane="best" departSpeed="max" from="-208022642" to="-302403506"/>
    <trip id="veh116" type="veh_passenger" depart="250.89" departLane="best" from="660808728#0" to="464981451"/>
    <trip id="veh117" type="veh_passenger" depart="253.05" departLane="best" departSpeed="max" from="996318101" to="-42278771#4"/>
    <trip id="veh118" type="veh_passenger" depart="255.21" departLane="best" departSpeed="max" from="302403506" to="-528946603"/>
    <trip id="veh119" type="veh_passenger" depart="257.37" departLane="best" departSpeed="max" from="996318101" to="-918310920"/>
    <trip id="veh120" type="veh_passenger" depart="259.54" departLane="best" departSpeed="max" from="918310920" to="219521873#0"/>
    <trip id="veh121" type="veh_passenger" depart="261.70" departLane="best" departSpeed="max" from="996318101" to="-42278771#3"/>
    <trip id="veh122" type="veh_passenger" depart="263.86" departLane="best" departSpeed="max" from="-290792379" to="-660808728#1"/>
    <trip id="veh123" type="veh_passenger" depart="266.03" departLane="best" from="42278771#4" to="-42278777"/>
    <trip id="veh124" type="veh_passenger" depart="268.19" departLane="best" departSpeed="max" from="-910487642" to="-996318101"/>
    <trip id="veh125" type="veh_passenger" depart="270.35" departLane="best" departSpeed="max" from="-464981452" to="290792379"/>
    <trip id="veh126" type="veh_passenger" depart="272.51" departLane="best" departSpeed="max" from="-208022642" to="-660808728#0"/>
    <trip id="veh127" type="veh_passenger" depart="274.68" departLane="best" from="-314853469" to="-42278777"/>
    <trip id="veh128" type="veh_passenger" depart="276.84" departLane="best" from="475301521#1" to="464981451"/>
    <trip id="veh129" type="veh_passenger" depart="279.00" departLane="best" from="42278771#2" to="-42278777"/>
    <trip id="veh130" type="veh_passenger" depart="281.17" departLane="best" from="-475301521#0" to="-528946603"/>
    <trip id="veh131" type="veh_passenger" depart="283.33" departLane="best" departSpeed="max" from="1095450993" to="-42278777"/>
    <trip id="veh132" type="veh_passenger" depart="285.49" departLane="best" departSpeed="max" from="-290792379" to="-528946603"/>
    <trip id="veh133" type="veh_passenger" depart="287.65" departLane="best" departSpeed="max" from="918310920" to="219521873#2"/>
    <trip id="veh134" type="veh_passenger" depart="289.82" departLane="best" departSpeed="max" from="918310920" to="208022642"/>
    <trip id="veh135" type="veh_passenger" depart="291.98" departLane="best" departSpeed="max" from="1095450993" to="-996318101"/>
    <trip id="veh136" type="veh_passenger" depart="294.14" departLane="best" from="-410498327#2" to="-667547900"/>
    <trip id="veh137" type="veh_passenger" depart="296.30" departLane="best" departSpeed="max" from="1095450993" to="410498327#0"/>
    <trip id="veh138" type="veh_passenger" depart="298.47" departLane="best" departSpeed="max" from="117337704#0" to="-475301520#2"/>
    <trip id="veh139" type="veh_passenger" depart="300.63" departLane="best" from="475301520#0" to="-302403506"/>
    <trip id="veh140" type="veh_passenger" depart="302.79" departLane="best" departSpeed="max" from="302403506" to="-42278777"/>
    <trip id="veh141" type="veh_passenger" depart="304.96" departLane="best" from="475301521#1" to="410498327#0"/>
    <trip id="veh142" type="veh_passenger" depart="307.12" departLane="best" departSpeed="max" from="-42278770" to="-1095450993"/>
    <trip id="veh143" type="veh_passenger" depart="309.28" departLane="best" from="-42278775" to="-667547900"/>
    <trip id="veh144" type="veh_passenger" depart="311.44" departLane="best" from="-660808728#2" to="-117337704#1"/>
    <trip id="veh145" type="veh_passenger" depart="313.61" departLane="best" departSpeed="max" from="1095450993" to="208022642"/>
    <trip id="veh146" type="veh_passenger" depart="315.77" departLane="best" departSpeed="max" from="-42278770" to="290792379"/>
    <trip id="veh147" type="veh_passenger" depart="317.93" departLane="best" departSpeed="max" from="117337704#0" to="-42278771#1"/>
    <trip id="veh148" type="veh_passenger" depart="320.10" departLane="best" from="-410498327#2" to="-1095450993"/>
    <trip id="veh149" type="veh_passenger" depart="322.26" departLane="best" departSpeed="max" from="42278777" to="42278770"/>
    <trip id="veh150" type="veh_passenger" depart="324.42" departLane="best" departSpeed="max" from="-290792379" to="-660808728#0"/>
    <trip id="veh151" type="veh_passenger" depart="326.58" departLane="best" departSpeed="max" from="-42278770" to="910487642"/>
    <trip id="veh152" type="veh_passenger" depart="328.75" departLane="best" from="219521872#0" to="-117337704#1"/>
    <trip id="veh153" type="veh_passenger" depart="330.91" departLane="best" departSpeed="max" from="117337704#0" to="42278770"/>
    <trip id="veh154" type="veh_passenger" depart="333.07" departLane="best" departSpeed="max" from="42278771#0" to="910487642"/>
    <trip id="veh155" type="veh_passenger" depart="335.24" departLane="best" from="42278771#2" to="-918310920"/>
    <trip id="veh156" type="veh_passenger" depart="337.40" departLane="best" from="660808728#0" to="-918310920"/>
    <trip id="veh157" type="veh_passenger" depart="339.56" departLane="best" departSpeed="max" from="667547900" to="29331867"/>
    <trip id="veh158" type="veh_passenger" depart="341.72" departLane="best" departSpeed="max" from="117337704#0" to="-42278771#1"/>
    <trip id="veh159" type="veh_passenger" depart="343.89" departLane="best" departSpeed="max" from="-464981452" to="208022642"/>
    <trip id="veh160" type="veh_passenger" depart="346.05" departLane="best" departSpeed="max" from="42278777" to="-918310920"/>
    <trip id="veh161" type="veh_passenger" depart="348.21" departLane="best" departSpeed="max" from="302403506" to="-42278771#4"/>
    <trip id="veh162" type="veh_passenger" depart="350.38" departLane="best" departSpeed="max" from="-464981452" to="-42278777"/>
    <trip id="veh163" type="veh_passenger" depart="352.54" departLane="best" departSpeed="max" from="240552107" to="-29331867"/>
    <trip id="veh164" type="veh_passenger" depart="354.70" departLane="best" departSpeed="max" from="42278771#0" to="-117337704#1"/>
    <trip id="veh165" type="veh_passenger" depart="356.86" departLane="best" departSpeed="max" from="1095450993" to="-918310920"/>
    <trip id="veh166" type="veh_passenger" depart="359.03" departLane="best" departSpeed="max" from="1095450993" to="410498327#0"/>
    <trip id="veh167" type="veh_passenger" depart="361.19" departLane="best" departSpeed="max" from="1095450993" to="475301521#0"/>
    <trip id="veh168" type="veh_passenger" depart="363.35" departLane="best" departSpeed="max" from="240552107" to="290792379"/>
    <trip id="veh169" type="veh_passenger" depart="365.51" departLane="best" departSpeed="max" from="667547900" to="42278770"/>
    <trip id="veh170" type="veh_passenger" depart="367.68" departLane="best" departSpeed="max" from="-910487642" to="-1095450993"/>
    <trip id="veh171" type="veh_passenger" depart="369.84" departLane="best" from="660808728#2" to="410498327#0"/>
    <trip id="veh172" type="veh_passenger" depart="372.00" departLane="best" departSpeed="max" from="667547900" to="910487642"/>
    <trip id="veh173" type="veh_passenger" depart="374.17" departLane="best" departSpeed="max" from="1095450993" to="410498327#0"/>
    <trip id="veh174" type="veh_passenger" depart="376.33" departLane="best" departSpeed="max" from="1095450993" to="-302403506"/>
    <trip id="veh175" type="veh_passenger" depart="378.49" departLane="best" departSpeed="max" from="117337704#0" to="208022635"/>
    <trip id="veh176" type="veh_passenger" depart="380.65" departLane="best" departSpeed="max" from="302403506" to="-1095450993"/>
    <trip id="veh177" type="veh_passenger" depart="382.82" departLane="best" departSpeed="max" from="-910487642" to="-996318101"/>
    <trip id="veh178" type="veh_passenger" depart="384.98" departLane="best" from="-219521872#3" to="-528946603"/>
    <trip id="veh179" type="veh_passenger" depart="387.14" departLane="best" departSpeed="max" from="-42278770" to="-42278777"/>
    <trip id="veh180" type="veh_passenger" depart="389.31" departLane="best" departSpeed="max" from="42278777" to="-528946603"/>
    <trip id="veh181" type="veh_passenger" depart="391.47" departLane="best" departSpeed="max" from="42278777" to="-42278771#4"/>
    <trip id="veh182" type="veh_passenger" depart="393.63" departLane="best" departSpeed="max" from="-464981452" to="-117337704#1"/>
    <trip id="veh183" type="veh_passenger" depart="395.79" departLane="best" departSpeed="max" from="-208022642" to="-918310920"/>
    <trip id="veh184" type="veh_passenger" depart="397.96" departLane="best" departSpeed="max" from="996318101" to="-475301520#2"/>
    <trip id="veh185" type="veh_passenger" depart="400.12" departLane="best" departSpeed="max" from="-208022642" to="-302403506"/>
    <trip id="veh186" type="veh_passenger" depart="402.28" departLane="best" departSpeed="max" from="240552107" to="-42278771#1"/>
    <trip id="veh187" type="veh_passenger" depart="404.45" departLane="best" departSpeed="max" from="42278771#0" to="42278770"/>
    <trip id="veh188" type="veh_passenger" depart="406.61" departLane="best" departSpeed="max" from="42278777" to="-219521873#1"/>
    <trip id="veh189" type="veh_passenger" depart="408.77" departLane="best" departSpeed="max" from="996318101" to="-528946603"/>
    <trip id="veh190" type="veh_passenger" depart="410.93" departLane="best" departSpeed="max" from="42278771#0" to="-117337704#1"/>
    <trip id="veh191" type="veh_passenger" depart="413.10" departLane="best" departSpeed="max" from="42278771#0" to="208022642"/>
    <trip id="veh192" type="veh_passenger" depart="415.26" departLane="best" departSpeed="max" from="-290792379" to="42278770"/>
    <trip id="veh193" type="veh_passenger" depart="417.42" departLane="best" from="660808728#2" to="208022635"/>
    <trip id="veh194" type="veh_passenger" depart="419.58" departLane="best" departSpeed="max" from="-290792379" to="910487642"/>
    <trip id="veh195" type="veh_passenger" depart="421.75" departLane="best" departSpeed="max" from="42278777" to="-475301520#2"/>
    <trip id="veh196" type="veh_passenger" depart="423.91" departLane="best" departSpeed="max" from="1095450993" to="-475301521#1"/>
    <trip id="veh197" type="veh_passenger" depart="426.07" departLane="best" from="-219521874#2" to="-42278777"/>
    <trip id="veh198" type="veh_passenger" depart="428.24" departLane="best" from="660808728#2" to="-42278771#3"/>
    <trip id="veh199" type="veh_passenger" depart="430.40" departLane="best" departSpeed="max" from="-290792379" to="910487642"/>
    <trip id="veh200" type="veh_passenger" depart="432.56" departLane="best" departSpeed="max" from="302403506" to="-42278771#4"/>
    <trip id="veh201" type="veh_passenger" depart="434.72" departLane="best" departSpeed="max" from="42278771#0" to="-660808728#1"/>
    <trip id="veh202" type="veh_passenger" depart="436.89" departLane="best" from="42278771#4" to="910487642"/>
    <trip id="veh203" type="veh_passenger" depart="439.05" departLane="best" departSpeed="max" from="667547900" to="-42278771#1"/>
    <trip id="veh204" type="veh_passenger" depart="441.21" departLane="best" departSpeed="max" from="117337704#0" to="208022642"/>
    <trip id="veh205" type="veh_passenger" depart="443.38" departLane="best" departSpeed="max" from="-910487642" to="-1095450993"/>
    <trip id="veh206" type="veh_passenger" depart="445.54" departLane="best" from="660808728#1" to="464981451"/>
    <trip id="veh207" type="veh_passenger" depart="447.70" departLane="best" departSpeed="max" from="-208022642" to="-660808728#2"/>
    <trip id="veh208" type="veh_passenger" depart="449.86" departLane="best" from="-219521874#2" to="290792379"/>
    <trip id="veh209" type="veh_passenger" depart="452.03" departLane="best" departSpeed="max" from="117337704#0" to="410498327#3"/>
    <trip id="veh210" type="veh_passenger" depart="454.19" departLane="best" departSpeed="max" from="42278771#0" to="208022642"/>
    <trip id="veh211" type="veh_passenger" depart="456.35" departLane="best" departSpeed="max" from="117337704#0" to="42278770"/>
    <trip id="veh212" type="veh_passenger" depart="458.52" departLane="best" departSpeed="max" from="-290792379" to="-42278771#1"/>
    <trip id="veh213" type="veh_passenger" depart="460.68" departLane="best" departSpeed="max" from="42278771#0" to="-42278777"/>
    <trip id="veh214" type="veh_passenger" depart="462.84" departLane="best" departSpeed="max" from="240552107" to="-667547900"/>
    <trip id="veh215" type="veh_passenger" depart="465.00" departLane="best" from="219521873#2" to="-660808728#0"/>
    <trip id="veh216" type="veh_passenger" depart="467.17" departLane="best" departSpeed="max" from="-464981452" to="-219521873#3"/>
    <trip id="veh217" type="veh_passenger" depart="469.33" departLane="best" departSpeed="max" from="-42278770" to="-219521873#3"/>
    <trip id="veh218" type="veh_passenger" depart="471.49" departLane="best" from="219521873#2" to="410498327#3"/>
    <trip id="veh219" type="veh_passenger" depart="473.66" departLane="best" departSpeed="max" from="-42278770" to="-42278771#1"/>
    <trip id="veh220" type="veh_passenger" depart="475.82" departLane="best" departSpeed="max" from="117337704#0" to="290792379"/>
    <trip id="veh221" type="veh_passenger" depart="477.98" departLane="best" departSpeed="max" from="996318101" to="-918310920"/>
    <trip id="veh222" type="veh_passenger" depart="480.14" departLane="best" departSpeed="max" from="-42278770" to="-42278771#1"/>
    <trip id="veh223" type="veh_passenger" depart="482.31" departLane="best" departSpeed="max" from="-42278770" to="-1095450993"/>
    <trip id="veh224" type="veh_passenger" depart="484.47" departLane="best" departSpeed="max" from="42278771#0" to="219521873#2"/>