<?xml version="1.0" encoding="UTF-8"?>

<!-- generated on 2023-04-20 19:50:59.603923 by randomTrips.py v1_16_0+0000-94ec4c6cd72
<configuration>
    <allow-fringe.min-length value="1000.0"/>
    <begin value="0"/>
    <end value="10000"/>
    <fringe-factor value="5"/>
    <fringe-start-attributes value="departSpeed=&quot;max&quot;"/>
    <insertion-density value="200.0"/>
    <lanes value="True"/>
    <min-distance.fringe value="10.0"/>
    <min-distance value="300.0"/>
    <net-file value="osm.net.xml.gz"/>
    <remove-loops value="True"/>
    <route-file value="osm.passenger.rou.xml"/>
    <trip-attributes value="departLane=&quot;best&quot;"/>
    <output-trip-file value="osm.passenger.trips.xml"/>
    <prefix value="veh"/>
    <validate value="True"/>
    <vehicle-class value="passenger"/>
</configuration>
-->

<!-- generated on 2023-04-20 19:50:59 by Eclipse SUMO duarouter Version 1.16.0
<configuration xmlns:xsi="http://www.w3.org/2001/XMLSchema-instance" xsi:noNamespaceSchemaLocation="http://sumo.dlr.de/xsd/duarouterConfiguration.xsd">

    <input>
        <net-file value="osm.net.xml.gz"/>
        <route-files value="osm.passenger.trips.xml"/>
    </input>

    <output>
        <output-file value="osm.passenger.rou.xml"/>
        <alternatives-output value="NUL"/>
    </output>

    <processing>
        <remove-loops value="true"/>
    </processing>

    <time>
        <begin value="0"/>
        <end value="10000"/>
    </time>

    <report>
        <no-warnings value="true"/>
        <ignore-errors value="true"/>
        <no-step-log value="true"/>
    </report>

</configuration>
-->

<routes xmlns:xsi="http://www.w3.org/2001/XMLSchema-instance" xsi:noNamespaceSchemaLocation="http://sumo.dlr.de/xsd/routes_file.xsd">
    <vType id="veh_passenger" vClass="passenger"/>
    <vehicle id="veh0" type="veh_passenger" depart="0.00" departLane="best" departSpeed="max">
        <route edges="302403506 -475301520#2 -219521873#3 -219521873#1 -42278771#4 -42278771#3 -1095450993"/>
    </vehicle>
    <vehicle id="veh1" type="veh_passenger" depart="2.16" departLane="best" departSpeed="max">
        <route edges="667547900 219521873#2 475301520#0 -660808728#2 -660808728#1 -660808728#0 -117337704#1"/>
    </vehicle>
    <vehicle id="veh2" type="veh_passenger" depart="4.33" departLane="best">
        <route edges="42278771#2 -219521872#3 -918310920"/>
    </vehicle>
    <vehicle id="veh3" type="veh_passenger" depart="6.49" departLane="best" departSpeed="max">
        <route edges="-208022642 475301520#0 208022635 410498327#0 410498327#3"/>
    </vehicle>
    <vehicle id="veh4" type="veh_passenger" depart="8.65" departLane="best">
        <route edges="42278771#2 42278771#4 219521873#0 219521873#2 475301520#0 -660808728#2 -660808728#1 -996318101"/>
    </vehicle>
    <vehicle id="veh5" type="veh_passenger" depart="10.81" departLane="best">
        <route edges="475301521#0 475301521#1 -219521873#3 -219521873#1 -42278771#4 -42278771#3 -1095450993"/>
    </vehicle>
    <vehicle id="veh6" type="veh_passenger" depart="12.98" departLane="best">
        <route edges="475301521#0 475301521#1 -219521873#3 -219521873#1 -42278771#4 290792379"/>
    </vehicle>
    <vehicle id="veh7" type="veh_passenger" depart="15.14" departLane="best" departSpeed="max">
        <route edges="-290792379 42278771#4 219521873#0 219521873#2 475301520#0 -660808728#2 -660808728#1 -660808728#0 -117337704#1"/>
    </vehicle>
    <vehicle id="veh8" type="veh_passenger" depart="17.30" departLane="best">
        <route edges="660808728#2 208022635"/>
    </vehicle>
    <vehicle id="veh9" type="veh_passenger" depart="19.47" departLane="best">
        <route edges="475301521#0 475301521#1 -219521873#3 -219521873#1 -42278771#4 290792379"/>
    </vehicle>
    <vehicle id="veh10" type="veh_passenger" depart="21.63" departLane="best">
        <route edges="219521873#2 475301520#0 -660808728#2 -660808728#1 -660808728#0 910487642"/>
    </vehicle>
    <vehicle id="veh11" type="veh_passenger" depart="23.79" departLane="best" departSpeed="max">
        <route edges="-910487642 660808728#0 -996318101"/>
    </vehicle>
    <vehicle id="veh12" type="veh_passenger" depart="25.95" departLane="best">
        <route edges="660808728#0 660808728#1 660808728#2 -475301520#2 208022642"/>
    </vehicle>
    <vehicle id="veh13" type="veh_passenger" depart="28.12" departLane="best" departSpeed="max">
        <route edges="667547900 219521873#2 475301520#0 -660808728#2 -660808728#1 -996318101"/>
    </vehicle>
    <vehicle id="veh14" type="veh_passenger" depart="30.28" departLane="best">
        <route edges="-219521874#2 -475301520#2 -219521873#3 -219521873#1 -42278771#4 -42278771#3 -42278771#1"/>
    </vehicle>
    <vehicle id="veh15" type="veh_passenger" depart="32.44" departLane="best" departSpeed="max">
        <route edges="302403506 -475301520#2 -475301521#1"/>
    </vehicle>
    <vehicle id="veh16" type="veh_passenger" depart="34.60" departLane="best" departSpeed="max">
        <route edges="-910487642 660808728#0 660808728#1 660808728#2 208022635 410498327#0"/>
    </vehicle>
    <vehicle id="veh17" type="veh_passenger" depart="36.77" departLane="best" departSpeed="max">
        <route edges="-464981452 -314853469 -410498327#2 -219521874#2 -660808728#2 -660808728#1"/>
    </vehicle>
    <vehicle id="veh18" type="veh_passenger" depart="38.93" departLane="best">
        <route edges="-410498327#2 -219521874#2 -475301520#2 208022642"/>
    </vehicle>
    <vehicle id="veh19" type="veh_passenger" depart="41.09" departLane="best" departSpeed="max">
        <route edges="-42278770 -410498327#2 219521872#0 290792379"/>
    </vehicle>
    <vehicle id="veh20" type="veh_passenger" depart="43.26" departLane="best" departSpeed="max">
        <route edges="996318101 660808728#1 660808728#2 -475301520#2 208022642"/>
    </vehicle>
    <vehicle id="veh21" type="veh_passenger" depart="45.42" departLane="best" departSpeed="max">
        <route edges="240552107 -314853469 -410498327#2 219521872#0 42278771#4 219521873#0 219521873#2"/>
    </vehicle>
    <vehicle id="veh22" type="veh_passenger" depart="47.58" departLane="best">
        <route edges="660808728#1 660808728#2 208022635 410498327#0 42278770"/>
    </vehicle>
    <vehicle id="veh23" type="veh_passenger" depart="49.74" departLane="best">
        <route edges="475301521#1 -219521873#3 -219521873#1 -42278771#4 -42278771#3"/>
    </vehicle>
    <vehicle id="veh24" type="veh_passenger" depart="51.91" departLane="best" departSpeed="max">
        <route edges="-42278770 -410498327#2 -219521874#2 -660808728#2"/>
    </vehicle>
    <vehicle id="veh25" type="veh_passenger" depart="54.07" departLane="best" departSpeed="max">
        <route edges="667547900 219521873#2 475301520#0 -660808728#2 -660808728#1 -660808728#0 -42278777"/>
    </vehicle>
    <vehicle id="veh26" type="veh_passenger" depart="56.23" departLane="best" departSpeed="max">
        <route edges="918310920 219521872#0 42278771#4 219521873#0 -667547900"/>
    </vehicle>
    <vehicle id="veh27" type="veh_passenger" depart="58.40" departLane="best" departSpeed="max">
        <route edges="240552107 -314853469 -410498327#2 219521872#0 -42278771#3 -42278771#1"/>
    </vehicle>
    <vehicle id="veh28" type="veh_passenger" depart="60.56" departLane="best" departSpeed="max">
        <route edges="240552107 -314853469 -410498327#2 -219521874#2 -475301520#2"/>
    </vehicle>
    <vehicle id="veh29" type="veh_passenger" depart="62.72" departLane="best" departSpeed="max">
        <route edges="-910487642 660808728#0 660808728#1 660808728#2 -475301520#2 -219521873#3 -219521873#1 -42278771#4 -42278771#3 -42278771#1"/>
    </vehicle>
    <vehicle id="veh30" type="veh_passenger" depart="64.88" departLane="best" departSpeed="max">
        <route edges="996318101 660808728#1 660808728#2 208022635 -918310920"/>
    </vehicle>
    <vehicle id="veh31" type="veh_passenger" depart="67.05" departLane="best">
        <route edges="-219521873#1 -42278771#4 -219521872#3 410498327#0 410498327#3 -528946603"/>
    </vehicle>
    <vehicle id="veh32" type="veh_passenger" depart="69.21" departLane="best" departSpeed="max">
        <route edges="996318101 660808728#1 660808728#2 208022635 -918310920"/>
    </vehicle>
    <vehicle id="veh33" type="veh_passenger" depart="71.37" departLane="best" departSpeed="max">
        <route edges="996318101 660808728#1 660808728#2 208022635 410498327#0 410498327#3 464981451"/>
    </vehicle>
    <vehicle id="veh34" type="veh_passenger" depart="73.54" departLane="best" departSpeed="max">
        <route edges="42278771#0 42278771#2 -219521872#3 -918310920"/>
    </vehicle>
    <vehicle id="veh35" type="veh_passenger" depart="75.70" departLane="best" departSpeed="max">
        <route edges="-464981452 -314853469 -410498327#2 -219521874#2 -475301520#2 208022642"/>
    </vehicle>
    <vehicle id="veh36" type="veh_passenger" depart="77.86" departLane="best" departSpeed="max">
        <route edges="-290792379 42278771#4 219521873#0 219521873#2 475301520#0 -660808728#2 -660808728#1"/>
    </vehicle>
    <vehicle id="veh37" type="veh_passenger" depart="80.02" departLane="best" departSpeed="max">
        <route edges="667547900 -219521873#1 -42278771#4 -42278771#3 -42278771#1"/>
    </vehicle>
    <vehicle id="veh38" type="veh_passenger" depart="82.19" departLane="best" departSpeed="max">
        <route edges="918310920 410498327#0 410498327#3 464981451"/>
    </vehicle>
    <vehicle id="veh39" type="veh_passenger" depart="84.35" departLane="best">
        <route edges="-475301520#2 208022642"/>
    </vehicle>
    <vehicle id="veh40" type="veh_passenger" depart="86.51" departLane="best" departSpeed="max">
        <route edges="42278777 660808728#0 660808728#1 660808728#2 208022635 -918310920"/>
    </vehicle>
    <vehicle id="veh41" type="veh_passenger" depart="88.68" departLane="best" departSpeed="max">
        <route edges="42278777 660808728#0 660808728#1 660808728#2 208022635 -918310920"/>
    </vehicle>
    <vehicle id="veh42" type="veh_passenger" depart="90.84" departLane="best" departSpeed="max">
        <route edges="-208022642 475301520#0 -660808728#2 -660808728#1 -660808728#0 -42278777"/>
    </vehicle>
    <vehicle id="veh43" type="veh_passenger" depart="93.00" departLane="best" departSpeed="max">
        <route edges="-208022642 475301520#0 -660808728#2 -660808728#1 -660808728#0"/>
    </vehicle>
    <vehicle id="veh44" type="veh_passenger" depart="95.16" departLane="best">
        <route edges="-475301521#0 -29331867 -660808728#0 -117337704#1"/>
    </vehicle>
    <vehicle id="veh45" type="veh_passenger" depart="97.33" departLane="best" departSpeed="max">
        <route edges="667547900 219521873#2 475301520#0 -660808728#2"/>
    </vehicle>
    <vehicle id="veh46" type="veh_passenger" depart="99.49" departLane="best">
        <route edges="-219521874#2 -475301520#2 -219521873#3 -667547900"/>
    </vehicle>
    <vehicle id="veh47" type="veh_passenger" depart="101.65" departLane="best">
        <route edges="-219521873#3 -219521873#1 -42278771#4 -219521872#3 410498327#0 410498327#3"/>
    </vehicle>
    <vehicle id="veh48" type="veh_passenger" depart="103.81" departLane="best" departSpeed="max">
        <route edges="42278777 660808728#0 660808728#1 660808728#2 208022635"/>
    </vehicle>
    <vehicle id="veh49" type="veh_passenger" depart="105.98" departLane="best" departSpeed="max">
        <route edges="1095450993 42278771#2 -219521872#3 410498327#0"/>
    </vehicle>
    <vehicle id="veh50" type="veh_passenger" depart="108.14" departLane="best" departSpeed="max">
        <route edges="240552107 -314853469 -410498327#2 219521872#0 290792379"/>
    </vehicle>
    <vehicle id="veh51" type="veh_passenger" depart="110.30" departLane="best" departSpeed="max">
        <route edges="-42278770 -410498327#2 -219521874#2 -660808728#2 -660808728#1 -660808728#0 -42278777"/>
    </vehicle>
    <vehicle id="veh52" type="veh_passenger" depart="112.47" departLane="best" departSpeed="max">
        <route edges="996318101 660808728#1 660808728#2 -475301520#2 208022642"/>
    </vehicle>
    <vehicle id="veh53" type="veh_passenger" depart="114.63" departLane="best" departSpeed="max">
        <route edges="1095450993 42278771#2 -219521872#3 -918310920"/>
    </vehicle>
    <vehicle id="veh54" type="veh_passenger" depart="116.79" departLane="best" departSpeed="max">
        <route edges="-290792379 -42278771#3 -42278771#1"/>
    </vehicle>
    <vehicle id="veh55" type="veh_passenger" depart="118.95" departLane="best" departSpeed="max">
        <route edges="667547900 219521873#2 475301520#0 -660808728#2 -660808728#1 -660808728#0 -117337704#1"/>
    </vehicle>
    <vehicle id="veh56" type="veh_passenger" depart="121.12" departLane="best" departSpeed="max">
        <route edges="-42278770 -410498327#2 -219521874#2"/>
    </vehicle>
    <vehicle id="veh57" type="veh_passenger" depart="123.28" departLane="best" departSpeed="max">
        <route edges="918310920 -219521874#2 -660808728#2 -660808728#1 -996318101"/>
    </vehicle>
    <vehicle id="veh58" type="veh_passenger" depart="125.44" departLane="best" departSpeed="max">
        <route edges="117337704#0 660808728#0 660808728#1 660808728#2 208022635 410498327#0 42278770"/>
    </vehicle>
    <vehicle id="veh59" type="veh_passenger" depart="127.61" departLane="best">
        <route edges="475301521#0 475301521#1 475301520#0 -302403506"/>
    </vehicle>
    <vehicle id="veh60" type="veh_passenger" depart="129.77" departLane="best" departSpeed="max">
        <route edges="-290792379 42278771#4 219521873#0 219521873#2 475301520#0 -660808728#2 -660808728#1 -660808728#0"/>
    </vehicle>
    <vehicle id="veh61" type="veh_passenger" depart="131.93" departLane="best" departSpeed="max">
        <route edges="996318101 660808728#1 660808728#2 -475301520#2 -219521873#3 -219521873#1 -42278771#4 -219521872#3"/>
    </vehicle>
    <vehicle id="veh62" type="veh_passenger" depart="134.09" departLane="best" departSpeed="max">
        <route edges="1095450993 42278771#2 42278771#4 219521873#0 219521873#2 475301520#0 -660808728#2 -660808728#1 -660808728#0 -42278777"/>
    </vehicle>
    <vehicle id="veh63" type="veh_passenger" depart="136.26" departLane="best" departSpeed="max">
        <route edges="667547900 -219521873#1 -42278771#4 -42278771#3 -42278771#1"/>
    </vehicle>
    <vehicle id="veh64" type="veh_passenger" depart="138.42" departLane="best" departSpeed="max">
        <route edges="-42278770 -410498327#2 -219521874#2 -660808728#2"/>
    </vehicle>
    <vehicle id="veh65" type="veh_passenger" depart="140.58" departLane="best" departSpeed="max">
        <route edges="-464981452 -314853469 -410498327#2 -219521874#2 -660808728#2 -660808728#1 -660808728#0"/>
    </vehicle>
    <vehicle id="veh66" type="veh_passenger" depart="142.75" departLane="best" departSpeed="max">
        <route edges="1095450993 42278771#2 -219521872#3 410498327#0 410498327#3 464981451"/>
    </vehicle>
    <vehicle id="veh67" type="veh_passenger" depart="144.91" departLane="best" departSpeed="max">
        <route edges="240552107 -314853469 -410498327#2 -219521874#2 -660808728#2 -660808728#1 -660808728#0 -117337704#1"/>
    </vehicle>
    <vehicle id="veh68" type="veh_passenger" depart="147.07" departLane="best" departSpeed="max">
        <route edges="117337704#0 660808728#0 660808728#1 660808728#2 208022635 410498327#0"/>
    </vehicle>
    <vehicle id="veh69" type="veh_passenger" depart="149.23" departLane="best" departSpeed="max">
        <route edges="996318101 -660808728#0 910487642"/>
    </vehicle>
    <vehicle id="veh70" type="veh_passenger" depart="151.40" departLane="best" departSpeed="max">
        <route edges="240552107 -314853469 -410498327#2 219521872#0 290792379"/>
    </vehicle>
    <vehicle id="veh71" type="veh_passenger" depart="153.56" departLane="best">
        <route edges="-314853469 -410498327#2 -219521874#2 -660808728#2 -660808728#1 -660808728#0 -42278777"/>
    </vehicle>
    <vehicle id="veh72" type="veh_passenger" depart="155.72" departLane="best">
        <route edges="-219521872#3 -219521874#2 -660808728#2 -660808728#1 -996318101"/>
    </vehicle>
    <vehicle id="veh73" type="veh_passenger" depart="157.89" departLane="best">
        <route edges="208022635 410498327#0 410498327#3 464981451"/>
    </vehicle>
    <vehicle id="veh74" type="veh_passenger" depart="160.05" departLane="best">
        <route edges="-410498327#2 -219521874#2 -660808728#2 -660808728#1 -660808728#0 910487642"/>
    </vehicle>
    <vehicle id="veh75" type="veh_passenger" depart="162.21" departLane="best">
        <route edges="29331867 475301521#0 475301521#1 -219521873#3 -219521873#1"/>
    </vehicle>
    <vehicle id="veh76" type="veh_passenger" depart="164.37" departLane="best" departSpeed="max">
        <route edges="667547900 -219521873#1 -42278771#4 -42278771#3 -42278771#1"/>
    </vehicle>
    <vehicle id="veh77" type="veh_passenger" depart="166.54" departLane="best">
        <route edges="29331867 475301521#0 475301521#1 208022642"/>
    </vehicle>
    <vehicle id="veh78" type="veh_passenger" depart="168.70" departLane="best" departSpeed="max">
        <route edges="1095450993 42278771#2 42278771#4 219521873#0 219521873#2 475301520#0 -660808728#2 -660808728#1 -996318101"/>
    </vehicle>
    <vehicle id="veh79" type="veh_passenger" depart="170.86" departLane="best">
        <route edges="219521873#0 219521873#2 475301520#0 -660808728#2 -660808728#1"/>
    </vehicle>
    <vehicle id="veh80" type="veh_passenger" depart="173.02" departLane="best" departSpeed="max">
        <route edges="-42278770 -410498327#2 219521872#0 290792379"/>
    </vehicle>
    <vehicle id="veh81" type="veh_passenger" depart="175.19" departLane="best">
        <route edges="-42278775 475301521#1 475301520#0 208022635 410498327#0 410498327#3 -528946603"/>
    </vehicle>
    <vehicle id="veh82" type="veh_passenger" depart="177.35" departLane="best" departSpeed="max">
        <route edges="42278771#0 42278771#2 42278771#4 219521873#0 219521873#2 475301520#0 -660808728#2 -660808728#1 -660808728#0 -42278777"/>
    </vehicle>
    <vehicle id="veh83" type="veh_passenger" depart="179.51" departLane="best">
        <route edges="475301521#1 475301520#0 208022635 410498327#0"/>
    </vehicle>
    <vehicle id="veh84" type="veh_passenger" depart="181.68" departLane="best" departSpeed="max">
        <route edges="996318101 -660808728#0 910487642"/>
    </vehicle>
    <vehicle id="veh85" type="veh_passenger" depart="183.84" departLane="best" departSpeed="max">
        <route edges="-464981452 -314853469 -410498327#2 -219521874#2 -660808728#2 -660808728#1"/>
    </vehicle>
    <vehicle id="veh86" type="veh_passenger" depart="186.00" departLane="best" departSpeed="max">
        <route edges="667547900 -219521873#1 -42278771#4 -219521872#3 410498327#0 410498327#3 464981451"/>
    </vehicle>
    <vehicle id="veh87" type="veh_passenger" depart="188.16" departLane="best" departSpeed="max">
        <route edges="-910487642 660808728#0 660808728#1 660808728#2 -302403506"/>
    </vehicle>
    <vehicle id="veh88" type="veh_passenger" depart="190.33" departLane="best">
        <route edges="660808728#1 660808728#2 -475301520#2 -219521873#3 -219521873#1 -42278771#4 290792379"/>
    </vehicle>
    <vehicle id="veh89" type="veh_passenger" depart="192.49" departLane="best" departSpeed="max">
        <route edges="302403506 -660808728#2 -660808728#1 -660808728#0 910487642"/>
    </vehicle>
    <vehicle id="veh90" type="veh_passenger" depart="194.65" departLane="best">
        <route edges="-410498327#2 219521872#0 -42278771#3 -1095450993"/>
    </vehicle>
    <vehicle id="veh91" type="veh_passenger" depart="196.82" departLane="best">
        <route edges="475301521#1 475301520#0 -660808728#2 -660808728#1 -660808728#0 -42278777"/>
    </vehicle>
    <vehicle id="veh92" type="veh_passenger" depart="198.98" departLane="best">
        <route edges="-314853469 -410498327#2 -219521874#2 -660808728#2 -660808728#1"/>
    </vehicle>
    <vehicle id="veh93" type="veh_passenger" depart="201.14" departLane="best" departSpeed="max">
        <route edges="-290792379 42278771#4 219521873#0 219521873#2 475301520#0 -660808728#2 -660808728#1 -996318101"/>
    </vehicle>
    <vehicle id="veh94" type="veh_passenger" depart="203.30" departLane="best" departSpeed="max">
        <route edges="302403506 -475301520#2 -219521873#3 -219521873#1 -42278771#4 -42278771#3 -42278771#1"/>
    </vehicle>
    <vehicle id="veh95" type="veh_passenger" depart="205.47" departLane="best" departSpeed="max">
        <route edges="117337704#0 660808728#0 29331867 475301521#0"/>
    </vehicle>
    <vehicle id="veh96" type="veh_passenger" depart="207.63" departLane="best">
        <route edges="-660808728#2 -660808728#1 -660808728#0 -117337704#1"/>
    </vehicle>
    <vehicle id="veh97" type="veh_passenger" depart="209.79" departLane="best" departSpeed="max">
        <route edges="-208022642 475301520#0 208022635 410498327#0 42278770"/>
    </vehicle>
    <vehicle id="veh98" type="veh_passenger" depart="211.96" departLane="best" departSpeed="max">
        <route edges="302403506 -475301520#2 -219521873#3 -219521873#1 -42278771#4 -42278771#3 -42278771#1"/>
    </vehicle>
    <vehicle id="veh99" type="veh_passenger" depart="214.12" departLane="best">
        <route edges="42278775 -660808728#1 -996318101"/>
    </vehicle>
    <vehicle id="veh100" type="veh_passenger" depart="216.28" departLane="best">
        <route edges="-219521873#3 -219521873#1 -42278771#4 -219521872#3 410498327#0 410498327#3 464981451"/>
    </vehicle>
    <vehicle id="veh101" type="veh_passenger" depart="218.44" departLane="best">
        <route edges="-314853469 -410498327#2 -219521874#2 -475301520#2 -219521873#3"/>
    </vehicle>
    <vehicle id="veh102" type="veh_passenger" depart="220.61" departLane="best">
        <route edges="475301520#0 208022635 410498327#0 410498327#3 464981451"/>
    </vehicle>
    <vehicle id="veh103" type="veh_passenger" depart="222.77" departLane="best" departSpeed="max">
        <route edges="667547900 -219521873#1 -42278771#4 -219521872#3 410498327#0"/>
    </vehicle>
    <vehicle id="veh104" type="veh_passenger" depart="224.93" departLane="best" departSpeed="max">
        <route edges="42278777 660808728#0 660808728#1 660808728#2 208022635 410498327#0 410498327#3 464981451"/>
    </vehicle>
    <vehicle id="veh105" type="veh_passenger" depart="227.09" departLane="best" departSpeed="max">
        <route edges="1095450993 42278771#2 42278771#4 219521873#0 219521873#2 208022642"/>
    </vehicle>
    <vehicle id="veh106" type="veh_passenger" depart="229.26" departLane="best">
        <route edges="-314853469 -410498327#2 -219521874#2 -660808728#2 -660808728#1 -660808728#0"/>
    </vehicle>
    <vehicle id="veh107" type="veh_passenger" depart="231.42" departLane="best" departSpeed="max">
        <route edges="667547900 219521873#2 475301520#0 -660808728#2 -660808728#1 -660808728#0 910487642"/>
    </vehicle>
    <vehicle id="veh108" type="veh_passenger" depart="233.58" departLane="best">
        <route edges="475301521#0 475301521#1 475301520#0 208022635 410498327#0 410498327#3 464981451"/>
    </vehicle>
    <vehicle id="veh109" type="veh_passenger" depart="235.75" departLane="best" departSpeed="max">
        <route edges="-208022642 475301520#0 -660808728#2 -660808728#1 29331867"/>
    </vehicle>
    <vehicle id="veh110" type="veh_passenger" depart="237.91" departLane="best">
        <route edges="475301520#0 208022635 410498327#0 410498327#3 464981451"/>
    </vehicle>
    <vehicle id="veh111" type="veh_passenger" depart="240.07" departLane="best">
        <route edges="475301521#0 475301521#1 -219521873#3 -219521873#1 -42278771#4 -42278771#3"/>
    </vehicle>
    <vehicle id="veh112" type="veh_passenger" depart="242.23" departLane="best" departSpeed="max">
        <route edges="42278777 660808728#0 660808728#1 660808728#2 -475301520#2 -219521873#3 -219521873#1"/>
    </vehicle>
    <vehicle id="veh113" type="veh_passenger" depart="244.40" departLane="best" departSpeed="max">
        <route edges="667547900 -219521873#1 -42278771#4 -219521872#3 410498327#0 410498327#3 464981451"/>
    </vehicle>
    <vehicle id="veh114" type="veh_passenger" depart="246.56" departLane="best">
        <route edges="-475301520#2 -219521873#3 -219521873#1 -42278771#4 -42278771#3 -42278771#1"/>
    </vehicle>
    <vehicle id="veh115" type="veh_passenger" depart="248.72" departLane="best" departSpeed="max">
        <route edges="-208022642 475301520#0 -302403506"/>
    </vehicle>
    <vehicle id="veh116" type="veh_passenger" depart="250.89" departLane="best">
        <route edges="660808728#0 660808728#1 660808728#2 208022635 410498327#0 410498327#3 464981451"/>
    </vehicle>
    <vehicle id="veh117" type="veh_passenger" depart="253.05" departLane="best" departSpeed="max">
        <route edges="996318101 660808728#1 660808728#2 -475301520#2 -219521873#3 -219521873#1 -42278771#4"/>
    </vehicle>
    <vehicle id="veh118" type="veh_passenger" depart="255.21" departLane="best" departSpeed="max">
        <route edges="302403506 208022635 410498327#0 410498327#3 -528946603"/>
    </vehicle>
    <vehicle id="veh119" type="veh_passenger" depart="257.37" departLane="best" departSpeed="max">
        <route edges="996318101 660808728#1 660808728#2 208022635 -918310920"/>
    </vehicle>
    <vehicle id="veh120" type="veh_passenger" depart="259.54" departLane="best" departSpeed="max">
        <route edges="918310920 219521872#0 42278771#4 219521873#0"/>
    </vehicle>
    <vehicle id="veh121" type="veh_passenger" depart="261.70" departLane="best" departSpeed="max">
        <route edges="996318101 660808728#1 660808728#2 -475301520#2 -219521873#3 -219521873#1 -42278771#4 -42278771#3"/>
    </vehicle>
    <vehicle id="veh122" type="veh_passenger" depart="263.86" departLane="best" departSpeed="max">
        <route edges="-290792379 42278771#4 219521873#0 219521873#2 475301520#0 -660808728#2 -660808728#1"/>
    </vehicle>
    <vehicle id="veh123" type="veh_passenger" depart="266.03" departLane="best">
        <route edges="42278771#4 219521873#0 219521873#2 475301520#0 -660808728#2 -660808728#1 -660808728#0 -42278777"/>
    </vehicle>
    <vehicle id="veh124" type="veh_passenger" depart="268.19" departLane="best" departSpeed="max">
        <route edges="-910487642 660808728#0 -996318101"/>
    </vehicle>
    <vehicle id="veh125" type="veh_passenger" depart="270.35" departLane="best" departSpeed="max">
        <route edges="-464981452 -314853469 -410498327#2 219521872#0 290792379"/>
    </vehicle>
    <vehicle id="veh126" type="veh_passenger" depart="272.51" departLane="best" departSpeed="max">
        <route edges="-208022642 475301520#0 -660808728#2 -660808728#1 -660808728#0"/>
    </vehicle>
    <vehicle id="veh127" type="veh_passenger" depart="274.68" departLane="best">
        <route edges="-314853469 -410498327#2 -219521874#2 -660808728#2 -660808728#1 -660808728#0 -42278777"/>
    </vehicle>
    <vehicle id="veh128" type="veh_passenger" depart="276.84" departLane="best">
        <route edges="475301521#1 475301520#0 208022635 410498327#0 410498327#3 464981451"/>
    </vehicle>
    <vehicle id="veh129" type="veh_passenger" depart="279.00" departLane="best">
        <route edges="42278771#2 42278771#4 219521873#0 219521873#2 475301520#0 -660808728#2 -660808728#1 -660808728#0 -42278777"/>
    </vehicle>
    <vehicle id="veh130" type="veh_passenger" depart="281.17" departLane="best">
        <route edges="-475301521#0 -29331867 660808728#1 660808728#2 208022635 410498327#0 410498327#3 -528946603"/>
    </vehicle>
    <vehicle id="veh131" type="veh_passenger" depart="283.33" departLane="best" departSpeed="max">
        <route edges="1095450993 42278771#2 42278771#4 219521873#0 219521873#2 475301520#0 -660808728#2 -660808728#1 -660808728#0 -42278777"/>
    </vehicle>
    <vehicle id="veh132" type="veh_passenger" depart="285.49" departLane="best" departSpeed="max">
        <route edges="-290792379 -219521872#3 410498327#0 410498327#3 -528946603"/>
    </vehicle>
    <vehicle id="veh133" type="veh_passenger" depart="287.65" departLane="best" departSpeed="max">
        <route edges="918310920 219521872#0 42278771#4 219521873#0 219521873#2"/>
    </vehicle>
    <vehicle id="veh134" type="veh_passenger" depart="289.82" departLane="best" departSpeed="max">
        <route edges="918310920 -219521874#2 -475301520#2 208022642"/>
    </vehicle>
    <vehicle id="veh135" type="veh_passenger" depart="291.98" departLane="best" departSpeed="max">
        <route edges="1095450993 42278771#2 42278771#4 219521873#0 219521873#2 475301520#0 -660808728#2 -660808728#1 -996318101"/>
    </vehicle>
    <vehicle id="veh136" type="veh_passenger" depart="294.14" departLane="best">
        <route edges="-410498327#2 219521872#0 42278771#4 219521873#0 -667547900"/>
    </vehicle>
    <vehicle id="veh137" type="veh_passenger" depart="296.30" departLane="best" departSpeed="max">
        <route edges="1095450993 42278771#2 -219521872#3 410498327#0"/>
    </vehicle>
    <vehicle id="veh138" type="veh_passenger" depart="298.47" departLane="best" departSpeed="max">
        <route edges="117337704#0 660808728#0 660808728#1 660808728#2 -475301520#2"/>
    </vehicle>
    <vehicle id="veh139" type="veh_passenger" depart="300.63" departLane="best">
        <route edges="475301520#0 -302403506"/>
    </vehicle>
    <vehicle id="veh140" type="veh_passenger" depart="302.79" departLane="best" departSpeed="max">
        <route edges="302403506 -660808728#2 -660808728#1 -660808728#0 -42278777"/>
    </vehicle>
    <vehicle id="veh141" type="veh_passenger" depart="304.96" departLane="best">
        <route edges="475301521#1 475301520#0 208022635 410498327#0"/>
    </vehicle>