<?xml version="1.0" encoding="UTF-8"?>

<!-- generated on 2023-04-13 20:37:08 by Eclipse SUMO netconvert Version 1.16.0
<configuration xmlns:xsi="http://www.w3.org/2001/XMLSchema-instance" xsi:noNamespaceSchemaLocation="http://sumo.dlr.de/xsd/netconvertConfiguration.xsd">

    <input>
        <type-files value="${SUMO_HOME}/data/typemap/osmNetconvert.typ.xml"/>
        <osm-files value="osm_bbox.osm.xml.gz"/>
    </input>

    <output>
        <output-file value="osm.net.xml.gz"/>
        <output.street-names value="true"/>
        <output.original-names value="true"/>
    </output>

    <projection>
        <proj.utm value="true"/>
    </projection>

    <processing>
        <geometry.remove value="true"/>
        <roundabouts.guess value="true"/>
    </processing>

    <tls_building>
        <tls.discard-simple value="true"/>
        <tls.join value="true"/>
        <tls.guess-signals value="true"/>
        <tls.default-type value="actuated"/>
    </tls_building>

    <ramp_guessing>
        <ramps.guess value="true"/>
    </ramp_guessing>

    <edge_removal>
        <keep-edges.by-vclass value="passenger"/>
    </edge_removal>

    <junctions>
        <junctions.join value="true"/>
        <junctions.corner-detail value="5"/>
    </junctions>

</configuration>
-->

<net version="1.16" junctionCornerDetail="5" limitTurnSpeed="5.50" xmlns:xsi="http://www.w3.org/2001/XMLSchema-instance" xsi:noNamespaceSchemaLocation="http://sumo.dlr.de/xsd/net_file.xsd">

    <location netOffset="-354598.40,-5253932.07" convBoundary="0.00,0.00,914.36,613.85" origBoundary="19.071351,47.422721,19.084173,47.428150" projParameter="+proj=utm +zone=34 +ellps=WGS84 +datum=WGS84 +units=m +no_defs"/>

    <type id="highway.bridleway" priority="1" numLanes="1" speed="2.78" allow="pedestrian" oneway="1" width="2.00"/>
    <type id="highway.bus_guideway" priority="1" numLanes="1" speed="27.78" allow="bus" oneway="1"/>
    <type id="highway.cycleway" priority="1" numLanes="1" speed="5.56" allow="bicycle" oneway="0" width="1.00"/>
    <type id="highway.footway" priority="1" numLanes="1" speed="2.78" allow="pedestrian" oneway="1" width="2.00"/>
    <type id="highway.ford" priority="1" numLanes="1" speed="2.78" allow="army" oneway="0"/>
    <type id="highway.living_street" priority="2" numLanes="1" speed="2.78" disallow="tram rail_urban rail rail_electric rail_fast ship" oneway="0"/>
    <type id="highway.motorway" priority="14" numLanes="2" speed="39.44" allow="private emergency authority army vip passenger hov taxi bus coach delivery truck trailer motorcycle evehicle custom1 custom2" oneway="1"/>
    <type id="highway.motorway_link" priority="9" numLanes="1" speed="22.22" allow="private emergency authority army vip passenger hov taxi bus coach delivery truck trailer motorcycle evehicle custom1 custom2" oneway="1"/>
    <type id="highway.path" priority="1" numLanes="1" speed="5.56" allow="pedestrian bicycle" oneway="0" width="2.00"/>
    <type id="highway.pedestrian" priority="1" numLanes="1" speed="2.78" allow="pedestrian" oneway="1" width="2.00"/>
    <type id="highway.primary" priority="12" numLanes="2" speed="27.78" disallow="tram rail_urban rail rail_electric rail_fast ship" oneway="0"/>
    <type id="highway.primary_link" priority="7" numLanes="1" speed="22.22" disallow="tram rail_urban rail rail_electric rail_fast ship" oneway="0"/>
    <type id="highway.raceway" priority="15" numLanes="2" speed="83.33" allow="vip" oneway="0"/>
    <type id="highway.residential" priority="3" numLanes="1" speed="13.89" disallow="tram rail_urban rail rail_electric rail_fast ship" oneway="0"/>
    <type id="highway.secondary" priority="11" numLanes="1" speed="27.78" disallow="tram rail_urban rail rail_electric rail_fast ship" oneway="0"/>
    <type id="highway.secondary_link" priority="6" numLanes="1" speed="22.22" disallow="tram rail_urban rail rail_electric rail_fast ship" oneway="0"/>
    <type id="highway.service" priority="1" numLanes="1" speed="5.56" allow="pedestrian delivery bicycle" oneway="0"/>
    <type id="highway.stairs" priority="1" numLanes="1" speed="1.39" allow="pedestrian" oneway="1" width="2.00"/>
    <type id="highway.step" priority="1" numLanes="1" speed="1.39" allow="pedestrian" oneway="1" width="2.00"/>
    <type id="highway.steps" priority="1" numLanes="1" speed="1.39" allow="pedestrian" oneway="1" width="2.00"/>
    <type id="highway.tertiary" priority="10" numLanes="1" speed="22.22" disallow="tram rail_urban rail rail_electric rail_fast ship" oneway="0"/>
    <type id="highway.tertiary_link" priority="5" numLanes="1" speed="22.22" disallow="tram rail_urban rail rail_electric rail_fast ship" oneway="0"/>
    <type id="highway.track" priority="1" numLanes="1" speed="5.56" allow="pedestrian motorcycle moped bicycle" oneway="0"/>
    <type id="highway.trunk" priority="13" numLanes="2" speed="27.78" disallow="pedestrian bicycle tram rail_urban rail rail_electric rail_fast ship" oneway="0"/>
    <type id="highway.trunk_link" priority="8" numLanes="1" speed="22.22" disallow="pedestrian bicycle tram rail_urban rail rail_electric rail_fast ship" oneway="0"/>
    <type id="highway.unclassified" priority="4" numLanes="1" speed="13.89" disallow="tram rail_urban rail rail_electric rail_fast ship" oneway="0"/>
    <type id="highway.unsurfaced" priority="1" numLanes="1" speed="8.33" disallow="tram rail_urban rail rail_electric rail_fast ship" oneway="0"/>
    <type id="railway.highspeed" priority="21" numLanes="1" speed="69.44" allow="rail_fast" oneway="1"/>
    <type id="railway.light_rail" priority="19" numLanes="1" speed="27.78" allow="rail_urban" oneway="1"/>
    <type id="railway.preserved" priority="16" numLanes="1" speed="27.78" allow="rail" oneway="1"/>
    <type id="railway.rail" priority="20" numLanes="1" speed="44.44" allow="rail" oneway="1"/>
    <type id="railway.subway" priority="18" numLanes="1" speed="27.78" allow="rail_urban" oneway="1"/>
    <type id="railway.tram" priority="17" numLanes="1" speed="13.89" allow="tram" oneway="1"/>

    <edge id=":1656682472_0" function="internal">
        <lane id=":1656682472_0_0" index="0" disallow="tram rail_urban rail rail_electric rail_fast ship" speed="3.65" length="4.67" shape="434.36,0.13 435.06,-1.13 435.82,-1.59 436.65,-1.26 437.55,-0.13"/>
    </edge>
    <edge id=":2286708328_0" function="internal">
        <lane id=":2286708328_0_0" index="0" disallow="tram rail_urban rail rail_electric rail_fast ship" speed="13.89" length="0.31" shape="295.96,233.76 295.65,233.79"/>
    </edge>
    <edge id=":2286708328_1" function="internal">
        <lane id=":2286708328_1_0" index="0" disallow="tram rail_urban rail rail_electric rail_fast ship" speed="13.89" length="0.28" shape="295.42,230.59 295.70,230.57"/>
    </edge>
    <edge id=":2319944142_0" function="internal">
        <lane id=":2319944142_0_0" index="0" disallow="tram rail_urban rail rail_electric rail_fast ship" speed="3.65" length="4.67" shape="6.35,346.94 7.04,345.67 7.80,345.20 8.64,345.53 9.54,346.66"/>
    </edge>
    <edge id=":244926660_0" function="internal">
        <lane id=":244926660_0_0" index="0" disallow="tram rail_urban rail rail_electric rail_fast ship" speed="3.65" length="4.67" shape="324.44,9.13 325.08,7.84 325.82,7.34 326.67,7.63 327.62,8.72"/>
    </edge>
    <edge id=":244929127_0" function="internal">
        <lane id=":244929127_0_0" index="0" disallow="tram rail_urban rail rail_electric rail_fast ship" speed="6.57" length="9.13" shape="469.26,423.81 468.70,421.39 467.50,419.71 465.64,418.78 463.14,418.60"/>
    </edge>
    <edge id=":244929127_1" function="internal">
        <lane id=":244929127_1_0" index="0" disallow="tram rail_urban rail rail_electric rail_fast ship" speed="18.05" length="14.43" shape="469.26,423.81 468.08,409.43"/>
    </edge>
    <edge id=":244929127_2" function="internal">
        <lane id=":244929127_2_0" index="0" disallow="tram rail_urban rail rail_electric rail_fast ship" speed="8.02" length="14.20" shape="469.26,423.81 469.49,419.93 470.91,417.06 473.52,415.18 477.32,414.29"/>
    </edge>
    <edge id=":244929127_3" function="internal">
        <lane id=":244929127_3_0" index="0" disallow="tram rail_urban rail rail_electric rail_fast ship" speed="3.65" length="4.67" shape="469.26,423.81 469.96,422.55 470.72,422.08 471.55,422.42 472.45,423.55"/>
    </edge>
    <edge id=":244929127_4" function="internal">
        <lane id=":244929127_4_0" index="0" disallow="tram rail_urban rail rail_electric rail_fast ship" speed="6.53" length="9.06" shape="477.60,417.48 475.17,418.04 473.50,419.24 472.60,421.08 472.45,423.55"/>
    </edge>
    <edge id=":244929127_5" function="internal">
        <lane id=":244929127_5_0" index="0" disallow="tram rail_urban rail rail_electric rail_fast ship" speed="18.05" length="14.50" shape="477.60,417.48 463.14,418.60"/>
    </edge>
    <edge id=":244929127_6" function="internal">
        <lane id=":244929127_6_0" index="0" disallow="tram rail_urban rail rail_electric rail_fast ship" speed="8.00" length="14.24" shape="477.60,417.48 473.70,417.27 470.82,415.85 468.94,413.24 468.08,409.43"/>
    </edge>
    <edge id=":244929127_7" function="internal">
        <lane id=":244929127_7_0" index="0" disallow="tram rail_urban rail rail_electric rail_fast ship" speed="3.65" length="1.44" shape="477.60,417.48 476.33,416.79"/>
    </edge>
    <edge id=":244929127_16" function="internal">
        <lane id=":244929127_16_0" index="0" disallow="tram rail_urban rail rail_electric rail_fast ship" speed="3.65" length="3.23" shape="476.33,416.79 475.86,416.03 476.19,415.20 477.32,414.29"/>
    </edge>
    <edge id=":244929127_8" function="internal">
        <lane id=":244929127_8_0" index="0" disallow="tram rail_urban rail rail_electric rail_fast ship" speed="6.50" length="9.06" shape="471.27,409.16 471.82,411.59 473.01,413.26 474.84,414.16 477.32,414.29"/>
    </edge>
    <edge id=":244929127_9" function="internal">
        <lane id=":244929127_9_0" index="0" disallow="tram rail_urban rail rail_electric rail_fast ship" speed="18.05" length="14.43" shape="471.27,409.16 472.45,423.55"/>
    </edge>
    <edge id=":244929127_10" function="internal">
        <lane id=":244929127_10_0" index="0" disallow="tram rail_urban rail rail_electric rail_fast ship" speed="7.97" length="2.51" shape="471.27,409.16 471.11,411.67"/>
    </edge>
    <edge id=":244929127_11" function="internal">
        <lane id=":244929127_11_0" index="0" disallow="tram rail_urban rail rail_electric rail_fast ship" speed="3.65" length="1.30" shape="471.27,409.16 470.63,410.30"/>
    </edge>
    <edge id=":244929127_17" function="internal">
        <lane id=":244929127_17_0" index="0" disallow="tram rail_urban rail rail_electric rail_fast ship" speed="7.97" length="11.74" shape="471.11,411.67 471.03,413.07 469.60,415.94 466.97,417.79 463.14,418.60"/>
    </edge>
    <edge id=":244929127_18" function="internal">
        <lane id=":244929127_18_0" index="0" disallow="tram rail_urban rail rail_electric rail_fast ship" speed="3.65" length="3.37" shape="470.63,410.30 470.57,410.43 469.80,410.89 468.97,410.56 468.08,409.43"/>
    </edge>
    <edge id=":244929127_12" function="internal">
        <lane id=":244929127_12_0" index="0" disallow="tram rail_urban rail rail_electric rail_fast ship" speed="6.47" length="9.03" shape="462.92,415.41 465.35,414.89 467.02,413.72 467.93,411.90 468.08,409.43"/>
    </edge>
    <edge id=":244929127_13" function="internal">
        <lane id=":244929127_13_0" index="0" disallow="tram rail_urban rail rail_electric rail_fast ship" speed="18.05" length="14.43" shape="462.92,415.41 477.32,414.29"/>
    </edge>
    <edge id=":244929127_14" function="internal">
        <lane id=":244929127_14_0" index="0" disallow="tram rail_urban rail rail_electric rail_fast ship" speed="8.06" length="14.24" shape="462.92,415.41 466.82,415.69 469.71,417.15 471.58,419.76 472.45,423.55"/>
    </edge>
    <edge id=":244929127_15" function="internal">
        <lane id=":244929127_15_0" index="0" disallow="tram rail_urban rail rail_electric rail_fast ship" speed="3.65" length="4.67" shape="462.92,415.41 464.17,416.12 464.63,416.90 464.28,417.72 463.14,418.60"/>
    </edge>
    <edge id=":244929128_0" function="internal">
        <lane id=":244929128_0_0" index="0" disallow="tram rail_urban rail rail_electric rail_fast ship" speed="6.47" length="9.03" shape="247.03,438.67 246.53,436.24 245.37,434.57 243.55,433.65 241.08,433.49"/>
    </edge>
    <edge id=":244929128_1" function="internal">
        <lane id=":244929128_1_0" index="0" disallow="tram rail_urban rail rail_electric rail_fast ship" speed="13.89" length="14.45" shape="247.03,438.67 245.94,424.27"/>
    </edge>
    <edge id=":244929128_2" function="internal">
        <lane id=":244929128_2_0" index="0" disallow="tram rail_urban rail rail_electric rail_fast ship" speed="8.03" length="14.23" shape="247.03,438.67 247.34,434.77 248.81,431.90 251.45,430.06 255.24,429.26"/>
    </edge>
    <edge id=":244929128_3" function="internal">
        <lane id=":244929128_3_0" index="0" disallow="tram rail_urban rail rail_electric rail_fast ship" speed="3.65" length="4.67" shape="247.03,438.67 247.75,437.43 248.53,436.98 249.35,437.33 250.22,438.48"/>
    </edge>
    <edge id=":244929128_4" function="internal">
        <lane id=":244929128_4_0" index="0" disallow="tram rail_urban rail rail_electric rail_fast ship" speed="6.54" length="9.10" shape="255.46,432.45 253.04,432.96 251.36,434.14 250.42,435.98 250.22,438.48"/>
    </edge>
    <edge id=":244929128_5" function="internal">
        <lane id=":244929128_5_0" index="0" disallow="tram rail_urban rail rail_electric rail_fast ship" speed="13.89" length="14.42" shape="255.46,432.45 241.08,433.49"/>
    </edge>
    <edge id=":244929128_6" function="internal">
        <lane id=":244929128_6_0" index="0" disallow="tram rail_urban rail rail_electric rail_fast ship" speed="8.08" length="4.01" shape="255.46,432.45 251.59,432.15 251.47,432.09"/>
    </edge>
    <edge id=":244929128_7" function="internal">
        <lane id=":244929128_7_0" index="0" disallow="tram rail_urban rail rail_electric rail_fast ship" speed="3.65" length="1.44" shape="255.46,432.45 254.21,431.73"/>
    </edge>
    <edge id=":244929128_16" function="internal">
        <lane id=":244929128_16_0" index="0" disallow="tram rail_urban rail rail_electric rail_fast ship" speed="8.08" length="10.23" shape="251.47,432.09 248.72,430.69 246.83,428.06 245.94,424.27"/>
    </edge>
    <edge id=":244929128_17" function="internal">
        <lane id=":244929128_17_0" index="0" disallow="tram rail_urban rail rail_electric rail_fast ship" speed="3.65" length="3.23" shape="254.21,431.73 253.75,430.96 254.10,430.13 255.24,429.26"/>
    </edge>
    <edge id=":244929128_8" function="internal">
        <lane id=":244929128_8_0" index="0" disallow="tram rail_urban rail rail_electric rail_fast ship" speed="6.61" length="9.17" shape="249.12,423.98 249.70,426.43 250.91,428.12 252.76,429.07 255.24,429.26"/>
    </edge>
    <edge id=":244929128_9" function="internal">
        <lane id=":244929128_9_0" index="0" disallow="tram rail_urban rail rail_electric rail_fast ship" speed="13.89" length="14.55" shape="249.12,423.98 250.22,438.48"/>
    </edge>
    <edge id=":244929128_10" function="internal">
        <lane id=":244929128_10_0" index="0" disallow="tram rail_urban rail rail_electric rail_fast ship" speed="7.98" length="14.26" shape="249.12,423.98 248.92,427.88 247.51,430.77 244.90,432.64 241.08,433.49"/>
    </edge>
    <edge id=":244929128_11" function="internal">
        <lane id=":244929128_11_0" index="0" disallow="tram rail_urban rail rail_electric rail_fast ship" speed="3.65" length="4.67" shape="249.12,423.98 248.44,425.24 247.68,425.71 246.84,425.39 245.94,424.27"/>
    </edge>
    <edge id=":244929128_12" function="internal">
        <lane id=":244929128_12_0" index="0" disallow="tram rail_urban rail rail_electric rail_fast ship" speed="6.49" length="9.05" shape="240.82,430.30 243.25,429.76 244.91,428.57 245.81,426.74 245.94,424.27"/>
    </edge>
    <edge id=":244929128_13" function="internal">
        <lane id=":244929128_13_0" index="0" disallow="tram rail_urban rail rail_electric rail_fast ship" speed="13.89" length="14.46" shape="240.82,430.30 255.24,429.26"/>
    </edge>
    <edge id=":244929128_14" function="internal">
        <lane id=":244929128_14_0" index="0" disallow="tram rail_urban rail rail_electric rail_fast ship" speed="7.97" length="4.13" shape="240.82,430.30 244.73,430.55 244.92,430.65"/>
    </edge>
    <edge id=":244929128_15" function="internal">
        <lane id=":244929128_15_0" index="0" disallow="tram rail_urban rail rail_electric rail_fast ship" speed="3.65" length="1.44" shape="240.82,430.30 242.08,431.01"/>
    </edge>
    <edge id=":244929128_18" function="internal">
        <lane id=":244929128_18_0" index="0" disallow="tram rail_urban rail rail_electric rail_fast ship" speed="7.97" length="10.14" shape="244.92,430.65 247.60,432.00 249.43,434.64 250.22,438.48"/>
    </edge>
    <edge id=":244929128_19" function="internal">
        <lane id=":244929128_19_0" index="0" disallow="tram rail_urban rail rail_electric rail_fast ship" speed="3.65" length="3.23" shape="242.08,431.01 242.54,431.77 242.21,432.60 241.08,433.49"/>
    </edge>
    <edge id=":244929129_0" function="internal">
        <lane id=":244929129_0_0" index="0" disallow="tram rail_urban rail rail_electric rail_fast ship" speed="22.22" length="14.51" shape="15.67,456.99 14.58,442.52"/>
    </edge>
    <edge id=":244929129_1" function="internal">
        <lane id=":244929129_1_0" index="0" disallow="tram rail_urban rail rail_electric rail_fast ship" speed="8.01" length="4.13" shape="15.67,456.99 15.90,453.09 16.00,452.88"/>
    </edge>
    <edge id=":244929129_2" function="internal">
        <lane id=":244929129_2_0" index="0" disallow="tram rail_urban rail rail_electric rail_fast ship" speed="3.65" length="1.44" shape="15.67,456.99 16.36,455.72"/>
    </edge>
    <edge id=":244929129_9" function="internal">
        <lane id=":244929129_9_0" index="0" disallow="tram rail_urban rail rail_electric rail_fast ship" speed="8.01" length="10.13" shape="16.00,452.88 17.32,450.21 19.95,448.34 23.77,447.48"/>
    </edge>
    <edge id=":244929129_10" function="internal">
        <lane id=":244929129_10_0" index="0" disallow="tram rail_urban rail rail_electric rail_fast ship" speed="3.65" length="3.23" shape="16.36,455.72 17.13,455.26 17.96,455.59 18.86,456.72"/>
    </edge>
    <edge id=":244929129_3" function="internal">
        <lane id=":244929129_3_0" index="0" disallow="tram rail_urban rail rail_electric rail_fast ship" speed="6.52" length="9.09" shape="24.03,450.67 21.59,451.22 19.92,452.41 19.00,454.24 18.86,456.72"/>
    </edge>
    <edge id=":244929129_4" function="internal">
        <lane id=":244929129_4_0" index="0" disallow="tram rail_urban rail rail_electric rail_fast ship" speed="8.04" length="14.20" shape="24.03,450.67 20.20,450.42 17.35,448.98 15.48,446.34 14.58,442.52"/>
    </edge>
    <edge id=":244929129_5" function="internal">
        <lane id=":244929129_5_0" index="0" disallow="tram rail_urban rail rail_electric rail_fast ship" speed="3.65" length="4.67" shape="24.03,450.67 22.77,449.97 22.31,449.21 22.64,448.38 23.77,447.48"/>
    </edge>
    <edge id=":244929129_6" function="internal">
        <lane id=":244929129_6_0" index="0" disallow="tram rail_urban rail rail_electric rail_fast ship" speed="6.53" length="8.99" shape="17.77,442.32 18.34,444.74 19.53,446.41 21.34,447.32 23.77,447.48"/>
    </edge>
    <edge id=":244929129_7" function="internal">
        <lane id=":244929129_7_0" index="0" disallow="tram rail_urban rail rail_electric rail_fast ship" speed="22.22" length="14.44" shape="17.77,442.32 18.86,456.72"/>
    </edge>
    <edge id=":244929129_8" function="internal">
        <lane id=":244929129_8_0" index="0" disallow="tram rail_urban rail rail_electric rail_fast ship" speed="3.65" length="1.44" shape="17.77,442.32 17.05,443.57"/>
    </edge>
    <edge id=":244929129_11" function="internal">
        <lane id=":244929129_11_0" index="0" disallow="tram rail_urban rail rail_electric rail_fast ship" speed="3.65" length="3.23" shape="17.05,443.57 16.27,444.02 15.45,443.67 14.58,442.52"/>
    </edge>
    <edge id=":282197417_0" function="internal">
        <lane id=":282197417_0_0" index="0" disallow="tram rail_urban rail rail_electric rail_fast ship" speed="3.65" length="4.67" shape="259.44,591.71 258.72,592.95 257.94,593.40 257.12,593.05 256.25,591.90"/>
    </edge>
    <edge id=":282197418_0" function="internal">
        <lane id=":282197418_0_0" index="0" disallow="tram rail_urban rail rail_electric rail_fast ship" speed="3.65" length="4.67" shape="212.48,18.12 213.25,16.90 214.03,16.48 214.85,16.85 215.68,18.03"/>
    </edge>
    <edge id=":3066608649_0" function="internal">
        <lane id=":3066608649_0_0" index="0" disallow="tram rail_urban rail rail_electric rail_fast ship" speed="3.65" length="4.67" shape="484.12,566.00 483.42,567.26 482.66,567.73 481.83,567.39 480.93,566.26"/>
    </edge>
    <edge id=":322687673_0" function="internal">
        <lane id=":322687673_0_0" index="0" disallow="tram rail_urban rail rail_electric rail_fast ship" speed="3.65" length="4.67" shape="703.19,542.22 702.49,543.48 701.72,543.95 700.89,543.62 700.00,542.49"/>
    </edge>
    <edge id=":322688651_0" function="internal">
        <lane id=":322688651_0_0" index="0" disallow="tram rail_urban rail rail_electric rail_fast ship" speed="3.90" length="2.62" shape="676.86,204.66 676.71,203.95 676.38,203.47 675.85,203.20 675.13,203.16"/>
    </edge>
    <edge id=":322688651_1" function="internal">
        <lane id=":322688651_1_0" index="0" disallow="tram rail_urban rail rail_electric rail_fast ship" speed="6.07" length="7.87" shape="674.88,199.97 677.03,200.10 678.62,200.90 679.62,202.36 680.05,204.48"/>
    </edge>
    <edge id=":497096333_0" function="internal">
        <lane id=":497096333_0_0" index="0" disallow="tram rail_urban rail rail_electric rail_fast ship" speed="6.51" length="9.05" shape="688.58,404.74 688.02,402.32 686.83,400.66 685.00,399.76 682.53,399.62"/>
    </edge>
    <edge id=":497096333_1" function="internal">
        <lane id=":497096333_1_0" index="0" disallow="tram rail_urban rail rail_electric rail_fast ship" speed="11.11" length="14.55" shape="688.58,404.74 687.61,390.22"/>
    </edge>
    <edge id=":497096333_2" function="internal">
        <lane id=":497096333_2_0" index="0" disallow="tram rail_urban rail rail_electric rail_fast ship" speed="8.00" length="14.26" shape="688.58,404.74 688.81,400.85 690.24,397.97 692.88,396.11 696.71,395.27"/>
    </edge>
    <edge id=":497096333_3" function="internal">
        <lane id=":497096333_3_0" index="0" disallow="tram rail_urban rail rail_electric rail_fast ship" speed="3.65" length="4.67" shape="688.58,404.74 689.27,403.48 690.04,403.01 690.87,403.35 691.76,404.48"/>
    </edge>
    <edge id=":497096333_4" function="internal">
        <lane id=":497096333_4_0" index="0" disallow="tram rail_urban rail rail_electric rail_fast ship" speed="6.50" length="9.07" shape="696.95,398.46 694.51,399.00 692.83,400.18 691.91,402.00 691.76,404.48"/>
    </edge>
    <edge id=":497096333_5" function="internal">
        <lane id=":497096333_5_0" index="0" disallow="tram rail_urban rail rail_electric rail_fast ship" speed="22.22" length="14.47" shape="696.95,398.46 682.53,399.62"/>
    </edge>
    <edge id=":497096333_6" function="internal">
        <lane id=":497096333_6_0" index="0" disallow="tram rail_urban rail rail_electric rail_fast ship" speed="7.96" length="4.04" shape="696.95,398.46 693.03,398.20 692.93,398.14"/>
    </edge>
    <edge id=":497096333_7" function="internal">
        <lane id=":497096333_7_0" index="0" disallow="tram rail_urban rail rail_electric rail_fast ship" speed="3.65" length="1.44" shape="696.95,398.46 695.69,397.75"/>
    </edge>
    <edge id=":497096333_16" function="internal">
        <lane id=":497096333_16_0" index="0" disallow="tram rail_urban rail rail_electric rail_fast ship" speed="7.96" length="10.24" shape="692.93,398.14 690.17,396.73 688.36,394.07 687.61,390.22"/>
    </edge>
    <edge id=":497096333_17" function="internal">
        <lane id=":497096333_17_0" index="0" disallow="tram rail_urban rail rail_electric rail_fast ship" speed="3.65" length="3.23" shape="695.69,397.75 695.23,396.99 695.57,396.16 696.71,395.27"/>
    </edge>
    <edge id=":497096333_8" function="internal">
        <lane id=":497096333_8_0" index="0" disallow="tram rail_urban rail rail_electric rail_fast ship" speed="6.46" length="9.03" shape="690.81,390.06 691.28,392.50 692.42,394.18 694.23,395.10 696.71,395.27"/>
    </edge>
    <edge id=":497096333_9" function="internal">
        <lane id=":497096333_9_0" index="0" disallow="tram rail_urban rail rail_electric rail_fast ship" speed="11.11" length="14.45" shape="690.81,390.06 691.76,404.48"/>
    </edge>
    <edge id=":497096333_10" function="internal">
        <lane id=":497096333_10_0" index="0" disallow="tram rail_urban rail rail_electric rail_fast ship" speed="8.14" length="14.31" shape="690.81,390.06 690.45,393.96 688.96,396.85 686.31,398.74 682.53,399.62"/>
    </edge>
    <edge id=":497096333_11" function="internal">
        <lane id=":497096333_11_0" index="0" disallow="tram rail_urban rail rail_electric rail_fast ship" speed="3.65" length="4.67" shape="690.81,390.06 690.07,391.30 689.29,391.74 688.47,391.38 687.61,390.22"/>
    </edge>
    <edge id=":497096333_12" function="internal">
        <lane id=":497096333_12_0" index="0" disallow="tram rail_urban rail rail_electric rail_fast ship" speed="6.67" length="9.28" shape="682.25,396.43 684.70,395.86 686.41,394.63 687.38,392.75 687.61,390.22"/>
    </edge>
    <edge id=":497096333_13" function="internal">
        <lane id=":497096333_13_0" index="0" disallow="tram rail_urban rail rail_electric rail_fast ship" speed="22.22" length="14.50" shape="682.25,396.43 696.71,395.27"/>
    </edge>
    <edge id=":497096333_14" function="internal">
        <lane id=":497096333_14_0" index="0" disallow="tram rail_urban rail rail_electric rail_fast ship" speed="8.00" length="4.11" shape="682.25,396.43 686.14,396.65 686.33,396.74"/>
    </edge>
    <edge id=":497096333_15" function="internal">
        <lane id=":497096333_15_0" index="0" disallow="tram rail_urban rail rail_electric rail_fast ship" speed="3.65" length="1.44" shape="682.25,396.43 683.52,397.12"/>
    </edge>
    <edge id=":497096333_18" function="internal">
        <lane id=":497096333_18_0" index="0" disallow="tram rail_urban rail rail_electric rail_fast ship" speed="8.00" length="10.11" shape="686.33,396.74 689.02,398.06 690.90,400.67 691.76,404.48"/>
    </edge>
    <edge id=":497096333_19" function="internal">
        <lane id=":497096333_19_0" index="0" disallow="tram rail_urban rail rail_electric rail_fast ship" speed="3.65" length="3.23" shape="683.52,397.12 683.98,397.88 683.65,398.72 682.53,399.62"/>
    </edge>
    <edge id=":497096334_0" function="internal">
        <lane id=":497096334_0_0" index="0" disallow="tram rail_urban rail rail_electric rail_fast ship" speed="3.65" length="4.67" shape="914.21,377.78 915.48,378.46 915.96,379.22 915.64,380.05 914.52,380.97"/>
    </edge>
    <edge id=":514869167_0" function="internal">
        <lane id=":514869167_0_0" index="0" disallow="tram rail_urban rail rail_electric rail_fast ship" speed="13.89" length="14.41" shape="123.27,247.56 108.90,248.74"/>
    </edge>
    <edge id=":514869167_1" function="internal">
        <lane id=":514869167_1_0" index="0" disallow="tram rail_urban rail rail_electric rail_fast ship" speed="8.04" length="4.06" shape="123.27,247.56 119.40,247.33 119.23,247.25"/>
    </edge>
    <edge id=":514869167_2" function="internal">
        <lane id=":514869167_2_0" index="0" disallow="tram rail_urban rail rail_electric rail_fast ship" speed="3.65" length="1.44" shape="123.27,247.56 122.00,246.87"/>
    </edge>
    <edge id=":514869167_9" function="internal">
        <lane id=":514869167_9_0" index="0" disallow="tram rail_urban rail rail_electric rail_fast ship" speed="8.04" length="10.15" shape="119.23,247.25 116.52,245.91 114.63,243.31 113.72,239.51"/>
    </edge>
    <edge id=":514869167_10" function="internal">
        <lane id=":514869167_10_0" index="0" disallow="tram rail_urban rail rail_electric rail_fast ship" speed="3.65" length="3.23" shape="122.00,246.87 121.54,246.10 121.87,245.27 123.00,244.38"/>
    </edge>
    <edge id=":514869167_3" function="internal">
        <lane id=":514869167_3_0" index="0" disallow="tram rail_urban rail rail_electric rail_fast ship" speed="6.55" length="9.09" shape="116.91,239.21 117.49,241.64 118.70,243.32 120.53,244.23 123.00,244.38"/>
    </edge>
    <edge id=":514869167_4" function="internal">
        <lane id=":514869167_4_0" index="0" disallow="tram rail_urban rail rail_electric rail_fast ship" speed="7.98" length="14.24" shape="116.91,239.21 116.72,243.11 115.32,246.00 112.71,247.88 108.90,248.74"/>
    </edge>
    <edge id=":514869167_5" function="internal">
        <lane id=":514869167_5_0" index="0" disallow="tram rail_urban rail rail_electric rail_fast ship" speed="3.65" length="4.67" shape="116.91,239.21 116.22,240.48 115.46,240.95 114.63,240.63 113.72,239.51"/>
    </edge>
    <edge id=":514869167_6" function="internal">
        <lane id=":514869167_6_0" index="0" disallow="tram rail_urban rail rail_electric rail_fast ship" speed="6.48" length="9.03" shape="108.64,245.55 111.06,245.01 112.71,243.82 113.60,241.98 113.72,239.51"/>
    </edge>
    <edge id=":514869167_7" function="internal">
        <lane id=":514869167_7_0" index="0" disallow="tram rail_urban rail rail_electric rail_fast ship" speed="13.89" length="14.41" shape="108.64,245.55 123.00,244.38"/>
    </edge>
    <edge id=":514869167_8" function="internal">